 8
 acroleina PBE0|cc-pVTZ
 C         0.000740541500     0.005490797800   0.000000000000    
 C         0.003973853500     1.334743430000   0.000000000000    
 C         1.268726431900     2.078554336200   0.000000000000    
 O         1.352836429900     3.279806972900   0.000000000000    
 H        -0.915721830000    -0.571256790100   0.000000000000    
 H         0.934262565100    -0.549130613100   0.000000000000    
 H        -0.908717007400     1.920744703900   0.000000000000    
 H         2.178403038700     1.439814592700   0.000000000000    
