88

O     10.637865224    4.156503882    9.829525945 
O     12.829211720    3.673785485    9.743092706 
C      9.494686250    5.249857093   14.422335218 
C      8.826427713    6.212633046   13.296520497 
C      7.741369954    7.106710479   13.793443605 
C      7.422766131    7.245604382   15.130271786 
C      8.030249826    6.376311559   16.148890505 
C      8.929532771    5.401725290   15.794893268 
C      8.816873655    4.083813729   16.372436869 
C      9.120084614    3.099745845   15.353060419 
C      9.417722471    3.801368027   14.123834352 
C      8.976109153    3.274902285   12.934918807 
C      8.355355750    4.147521717   11.915158912 
C      8.230621283    5.501695815   12.133349844 
C      6.990972352    6.155245639   11.790411347 
C      6.688026682    7.130663498   12.814293721 
C      5.370352363    7.374850599   13.162287393 
C      5.036090317    7.556992893   14.558338409 
C      6.038876356    7.475153636   15.514299149 
C      5.788478374    6.773365137   16.762851731 
C      7.006365142    6.087545275   17.146840783 
C      6.942140109    4.835171448   17.741666891 
C      7.862654378    3.800702755   17.348100277 
C      7.169847004    2.529532263   17.339087246 
C      7.461646155    1.592539076   16.360220888 
C      8.463237837    1.871990558   15.348143462 
C      8.024013132    1.319907873   14.100962639 
C      8.258487486    2.014377635   12.913421296 
C      7.223456301    2.091559119   11.904847393 
C      7.288477506    3.399490606   11.298165934 
C      6.111859326    4.050046458   10.916249714 
C      5.964035636    5.452958186   11.171466271 
C      4.581605377    5.695980812   11.551469654 
C      4.292460148    6.641124823   12.528084002 
C      3.292460958    6.360176478   13.538581631 
C      3.748670722    6.915752214   14.793519773 
C      3.507826897    6.246899023   15.978032819 
C      4.552412288    6.164394371   16.987810423 
C      4.482879511    4.859623422   17.601066316 
C      5.655914771    4.199087249   17.975186291 
C      5.795113202    2.776713584   17.726906002 
C      4.760745461    2.071765042   17.118577229 
C      5.067539341    1.086200048   16.091544421 
C      6.390388868    0.850496406   15.722486767 
C      6.738849372    0.683657355   14.321600981 
C      5.749598349    0.759508295   13.352783385 
C      5.995617339    1.467950755   12.117064711 
C      4.765920725    2.147615981   11.724667176 
C      4.827093553    3.396163750   11.137924014 
C      3.887603796    4.429467969   11.535533920 
C      2.922238117    4.156171246   12.501080957 
C      2.617036581    5.140238882   13.523481523 
C      2.364913675    4.433626664   14.767163927 
C      2.806925030    4.978057480   15.964937090 
C      3.407243132    4.117414434   16.973304674 
C      3.549493571    2.764737199   16.725716606 
C      3.092620215    2.195355455   15.467335429 
C      2.513799042    3.015910648   14.515282151 
C      2.855491792    2.844414197   13.112621413 
C      3.760348036    1.862342625   12.726959270 
C      4.371679861    1.003529325   13.742999243 
C      4.034763943    1.167207590   15.081781919 
C     10.296172079    6.293141510   13.665076436 
C     10.752381843    7.497443166   14.438320000 
C     11.393304991    7.335428019   15.665847636 
C     11.860926713    8.441755392   16.373971293 
C     11.701558733    9.711262339   15.848660520 
C     11.075895425    9.883257869   14.624592343 
C     10.594738886    8.784083124   13.926654492 
C     11.293517497    5.765843807   12.626688550 
C     11.325099397    6.560449916   11.323489900 
C     12.251850211    5.892095804   10.296006323 
C     11.792986476    4.499829918    9.942419267 
C     12.493357628    2.290169129    9.438100925 
H     11.503443013    6.385792926   16.022049108 
H     12.363315020    8.292049388   17.254013527 
H     12.085979983   10.504371587   16.339729750 
H     10.912944525   10.783822821   14.229984527 
H     10.096862052    9.010638252   13.052819457 
H     11.042986737    4.812216337   12.418366948 
H     12.278389527    5.753700855   13.082196537 
H     10.362254813    6.613678752   10.881800732 
H     11.638793167    7.510251328   11.522938998 
H     13.175416735    5.836870779   10.641220142 
H     12.277062343    6.394109943    9.408329262 
H     11.836510653    2.247253623    8.738971879 
H     12.078018069    1.864671573   10.325021031 
H     13.402327112    1.891285929    9.133154697 
